
This summary file was generated by TurbSim on 06-May-2022 at 09:20:11.


Runtime Options:

1501552846  Random seed #1
    RANLUX  Type of random number generator
         F  Output binary HH turbulence parameters?
         F  Output formatted turbulence parameters?
         F  Output AeroDyn HH files?
         T  Output AeroDyn FF files?
         F  Output BLADED FF files?
         F  Output tower data?
         F  Output formatted FF files?
         F  Output coherent turbulence time step file?
         F  Clockwise rotation when looking downwind?
 0 -  NONE  IEC turbulence models scaled to exact specified standard deviation


Turbine/Model Specifications:

        25  Vertical grid-point matrix dimension
        25  Horizontal grid-point matrix dimension
     0.050  Time step [seconds]
    20.000  Analysis time [seconds]
    20.000  Usable output time [seconds]
   139.511  Hub height [m]
   279.020  Grid height [m]
   279.020  Grid width [m]
     0.000  Vertical flow angle [degrees]
     0.000  Horizontal flow angle [degrees]


Meteorological Boundary Conditions:

    IECKAI  IEC Kaimal spectral model
         1  IEC standard: IEC 61400-1 Ed. 3: 2005
         A  IEC turbulence characteristic
       NTM  IEC Normal Turbulence Model
       N/A  IEC Extreme Turbulence Model (ETM) "c" parameter [m/s]
       PL   Wind profile type
   139.511  Reference height [m]
     8.000  Reference wind speed [m/s]
       N/A  Jet height [m]
     0.200  Power law exponent
     0.030  Surface roughness length [m]


Non-IEC Meteorological Boundary Conditions:

       N/A  Site latitude [degrees]
       N/A  Gradient Richardson number
       N/A  Friction or shear velocity [m/s]
       N/A  Mixing layer depth [m]
       N/A  Mean hub u'w' Reynolds stress
       N/A  Mean hub u'v' Reynolds stress
       N/A  Mean hub v'w' Reynolds stress


Spatial Coherence Models:

       IEC  u-component coherence model
      NONE  v-component coherence model
      NONE  w-component coherence model
(   12.000, 0.353E-03)  u-component coherence parameters
                   N/A  v-component coherence parameters
                   N/A  w-component coherence parameters
       N/A  Coherence exponent


You have requested that the following file(s) be generated:

   BAR_USC_out_NTM_U8.000000_Seed1501552846.0.bts (AeroDyn/TurbSim full-field wind file)


Turbulence Simulation Scaling Parameter Summary:

   Turbulence model used                            =  IEC Kaimal
   Turbulence characteristic                        =  A
   IEC turbulence type                              =  Normal Turbulence Model
   IEC standard                                     =  IEC 61400-1 Ed. 3: 2005
   Mean wind speed at hub height                    =    8.000 m/s
   Expected value of turbulence intensity at 15 m/s =   16.000%
   Characteristic value of standard deviation       =    1.856 m/s
   Turbulence scale                                 =   42.000 m
   u-component integral scale                       =  340.200 m
   Coherency scale                                  =  340.200 m
   Characteristic value of hub turbulence intensity =   23.200%
   Gradient Richardson number                       =    0.000

   Wind profile type                                =  Power law
   Power law exponent                               =    0.200
   Mean shear across rotor disk                     =    0.031 (m/s)/m
   Assumed rotor diameter                           =  279.020 m
   Surface roughness length                         =    0.030 m

   Nyquist frequency of turbulent wind field        =   10.000 Hz

   Number of time steps in the FFT                  =      400
   Number of time steps output                      =      400
   Number of points simulated                       =      625


Mean Flow Angles:

   Vertical   =   0.0 degrees
   Horizontal =   0.0 degrees

Mean Wind Speed Profile:

   Height    Wind Speed   Horizontal Angle  Vertical Angle  U-comp (X)   V-comp (Y)   W-comp (Z)
     (m)        (m/s)         (degrees)       (degrees)       (m/s)        (m/s)        (m/s)   
   ------    ----------   ----------------  --------------  ----------   ----------   ----------
    279.0        9.19            0.00            0.00          9.19         0.00         0.00
    267.4        9.11            0.00            0.00          9.11         0.00         0.00
    255.8        9.03            0.00            0.00          9.03         0.00         0.00
    244.1        8.95            0.00            0.00          8.95         0.00         0.00
    232.5        8.86            0.00            0.00          8.86         0.00         0.00
    220.9        8.77            0.00            0.00          8.77         0.00         0.00
    209.3        8.68            0.00            0.00          8.68         0.00         0.00
    197.6        8.58            0.00            0.00          8.58         0.00         0.00
    186.0        8.47            0.00            0.00          8.47         0.00         0.00
    174.4        8.37            0.00            0.00          8.37         0.00         0.00
    162.8        8.25            0.00            0.00          8.25         0.00         0.00
    151.1        8.13            0.00            0.00          8.13         0.00         0.00
    139.5        8.00            0.00            0.00          8.00         0.00         0.00
    127.9        7.86            0.00            0.00          7.86         0.00         0.00
    116.3        7.71            0.00            0.00          7.71         0.00         0.00
    104.6        7.55            0.00            0.00          7.55         0.00         0.00
     93.0        7.38            0.00            0.00          7.38         0.00         0.00
     81.4        7.18            0.00            0.00          7.18         0.00         0.00
     69.8        6.96            0.00            0.00          6.96         0.00         0.00
     58.1        6.72            0.00            0.00          6.72         0.00         0.00
     46.5        6.42            0.00            0.00          6.42         0.00         0.00
     34.9        6.06            0.00            0.00          6.06         0.00         0.00
     23.3        5.59            0.00            0.00          5.59         0.00         0.00
     11.6        4.87            0.00            0.00          4.87         0.00         0.00
      0.0        0.65            0.00            0.00          0.65         0.00         0.00


Harvested Random Seeds after Generation of the Random Numbers:

      3484375 K 1
            0 K 2


Hub-Height Simulated Turbulence Statistical Summary:

   Type of Wind        Min (m/s)   Mean (m/s)    Max (m/s)  Sigma (m/s)       TI (%)
   ----------------    ---------   ----------    ---------  -----------       ------
   Longitudinal (u)         5.52         8.00         9.79        0.791        9.882
   Lateral (v)             -1.99        -0.00         3.00        0.971       12.136
   Vertical (w)            -1.62         0.00         2.55        0.784        9.798
   U component              5.52         8.00         9.79        0.791        9.882
   V component             -1.99        -0.00         3.00        0.971       12.136
   W component             -1.62         0.00         2.55        0.784        9.798
   Horizontal (U&V)         5.53         8.06         9.79        0.795        9.863
   Total                    5.56         8.10         9.79        0.785        9.689

                       Min Reynolds     Mean Reynolds    Max Reynolds    Correlation
   Product             Stress (m/s)^2   Stress (m/s)^2   Stress (m/s)^2  Coefficient
   ----------------    --------------   --------------   --------------  -----------
   u'w'                     -2.289            -0.203             2.230        -0.327
   u'v'                     -0.874             0.266             2.919         0.346
   v'w'                     -3.233            -0.024             2.241        -0.031


   Friction Velocity (Ustar)  =      0.450 m/s
   Maximum Instantaneous TKE  =      4.990 (m/s)^2
   Maximum Instantaneous CTKE =      2.061 (m/s)^2


Grid Point Variance Summary:

   Y-coord -139.51 -127.88 -116.26 -104.63  -93.01  -81.38  -69.76  -58.13  -46.50  -34.88  -23.25  -11.63    0.00   11.63   23.25   34.88   46.50   58.13   69.76   81.38   93.01  104.63  116.26  127.88  139.51

   Height   Standard deviation at grid points for the u component:
   279.02    0.841   0.933   0.926   0.770   0.929   0.928   0.703   0.888   0.727   0.798   0.767   0.941   0.780   0.707   0.769   0.904   0.834   0.960   0.934   1.083   0.879   0.848   1.030   1.115   0.837
   267.39    0.938   0.928   0.725   0.791   1.007   0.783   0.872   0.734   0.763   0.765   0.816   0.837   0.761   0.904   0.903   0.937   1.003   0.765   0.889   0.912   0.936   0.783   0.917   1.020   0.813
   255.77    0.767   0.754   0.818   0.725   0.659   0.706   0.858   0.667   0.949   0.808   1.003   0.758   0.725   0.947   0.728   0.687   0.804   0.817   0.784   0.790   0.911   0.839   0.760   0.885   1.005
   244.14    0.763   0.855   0.737   0.953   1.011   1.048   0.833   0.905   1.076   0.711   0.949   1.006   1.238   0.867   0.731   0.949   0.897   0.755   0.817   0.770   1.012   0.672   0.753   0.958   1.248
   232.52    0.694   0.907   0.747   0.909   0.681   0.762   0.782   0.686   0.795   1.092   1.113   1.126   0.966   1.236   1.279   0.800   0.710   0.951   0.752   0.919   1.037   0.814   1.065   0.988   1.124
   220.89    1.006   0.716   0.774   0.864   0.816   0.974   0.881   0.824   0.978   1.083   1.022   0.919   1.041   1.144   1.089   0.621   0.934   1.144   0.660   0.811   0.972   0.867   0.930   0.830   0.740
   209.27    0.938   1.065   0.721   0.816   0.864   0.901   0.784   0.848   1.007   0.987   0.795   0.857   0.866   0.909   0.754   0.865   0.926   0.918   0.900   0.926   0.827   0.675   0.682   0.919   0.885
   197.64    0.816   1.108   0.674   0.766   0.795   0.693   0.870   0.826   0.887   0.858   0.709   0.855   0.797   0.918   0.765   0.832   0.833   0.776   0.723   0.891   0.723   0.835   1.003   0.995   1.024
   186.01    0.989   1.154   1.036   0.974   0.816   1.012   1.024   0.752   0.882   1.018   0.775   0.704   0.964   1.135   0.748   0.812   0.826   0.774   0.731   0.920   0.735   0.793   0.823   0.997   1.076
   174.39    1.020   1.028   0.777   0.878   0.817   0.915   1.002   0.918   0.671   0.821   1.161   0.930   0.704   1.029   0.850   0.727   0.765   0.831   0.795   0.882   0.929   0.785   0.882   0.791   0.942
   162.76    0.966   0.811   0.853   0.827   0.667   0.795   0.923   0.656   0.852   1.010   1.028   1.058   0.808   0.888   1.240   1.329   0.873   0.959   0.731   0.773   0.802   0.845   0.685   0.955   0.745
   151.14    0.895   0.747   0.871   0.913   0.761   1.003   0.687   0.937   0.712   0.810   0.882   0.930   0.824   0.980   1.119   1.004   1.055   1.076   0.739   0.779   0.799   0.774   0.755   1.016   0.814
   139.51    1.011   0.745   0.778   0.743   0.840   0.938   0.961   0.728   0.872   0.907   0.650   0.762   0.791   0.684   0.944   0.732   0.800   0.832   0.952   0.668   0.758   0.816   0.851   0.796   0.815
   127.88    0.801   1.118   1.152   1.038   1.006   0.958   1.164   0.736   0.776   0.826   0.897   0.950   0.768   0.765   0.822   0.864   0.828   0.770   0.991   1.165   0.758   1.064   0.660   0.832   0.715
   116.26    0.841   0.930   0.992   0.775   0.759   0.817   0.863   0.996   0.938   0.991   0.691   0.825   0.862   0.769   0.783   0.767   0.785   0.726   0.871   0.997   0.925   1.193   0.968   0.879   0.893
   104.63    0.775   0.781   0.964   1.036   0.659   0.973   0.946   0.745   1.014   0.987   0.696   0.797   0.879   0.814   0.693   0.857   0.711   0.894   0.677   0.895   0.686   1.062   0.971   0.750   0.788
    93.01    0.831   1.000   0.802   0.789   0.890   0.847   0.748   0.938   1.086   0.800   0.928   1.065   0.947   1.002   1.102   0.683   0.740   0.918   0.944   0.664   1.056   1.195   0.869   1.080   0.927
    81.38    0.861   0.821   0.884   0.768   0.962   0.681   0.911   0.719   0.791   0.989   0.862   0.775   0.873   0.780   1.150   1.221   0.685   0.885   1.064   1.088   1.038   0.995   0.895   0.854   1.051
    69.76    0.765   0.972   0.684   0.779   0.883   0.940   0.790   0.874   1.095   1.162   0.707   1.036   0.711   0.915   0.834   0.980   1.156   0.718   0.834   0.968   0.862   0.780   0.807   0.785   0.905
    58.13    0.776   0.890   1.016   0.897   0.869   0.739   0.707   0.850   1.091   1.265   0.734   0.907   0.903   0.804   0.697   0.814   0.860   1.046   0.874   0.803   0.975   0.861   0.683   0.931   0.810
    46.50    0.810   0.759   0.910   0.667   0.819   0.796   0.991   0.772   0.836   0.996   0.806   0.810   0.797   0.869   0.959   0.701   1.010   0.855   0.803   0.880   1.018   0.641   0.876   0.887   0.657
    34.88    0.765   0.841   0.928   1.014   0.817   0.853   0.801   0.923   0.695   0.732   0.866   0.989   1.134   1.013   0.974   1.050   1.049   0.985   0.742   0.814   0.964   1.230   1.211   0.943   1.049
    23.25    0.812   0.750   0.843   0.997   0.800   0.814   0.773   0.784   0.884   0.768   1.025   0.757   1.204   0.830   0.852   0.956   0.876   0.823   0.780   0.771   0.866   1.112   1.089   0.720   0.829
    11.63    0.921   0.981   0.821   0.727   0.956   1.137   0.805   0.792   0.783   0.883   0.758   0.885   1.127   1.107   1.085   1.004   0.971   0.913   0.672   0.876   0.921   0.950   0.810   0.950   0.930
     0.00    0.900   0.713   0.931   0.824   1.014   0.932   0.802   0.873   0.819   0.738   0.849   0.761   0.845   1.014   0.901   0.711   0.788   0.766   0.777   0.915   0.944   0.726   0.913   0.829   1.023

   Height   Standard deviation at grid points for the v component:
   279.02    0.971   0.971   0.971   0.971   0.971   0.971   0.971   0.971   0.971   0.971   0.971   0.971   0.971   0.971   0.971   0.971   0.971   0.971   0.971   0.971   0.971   0.971   0.971   0.971   0.971
   267.39    0.971   0.971   0.971   0.971   0.971   0.971   0.971   0.971   0.971   0.971   0.971   0.971   0.971   0.971   0.971   0.971   0.971   0.971   0.971   0.971   0.971   0.971   0.971   0.971   0.971
   255.77    0.971   0.971   0.971   0.971   0.971   0.971   0.971   0.971   0.971   0.971   0.971   0.971   0.971   0.971   0.971   0.971   0.971   0.971   0.971   0.971   0.971   0.971   0.971   0.971   0.971
   244.14    0.971   0.971   0.971   0.971   0.971   0.971   0.971   0.971   0.971   0.971   0.971   0.971   0.971   0.971   0.971   0.971   0.971   0.971   0.971   0.971   0.971   0.971   0.971   0.971   0.971
   232.52    0.971   0.971   0.971   0.971   0.971   0.971   0.971   0.971   0.971   0.971   0.971   0.971   0.971   0.971   0.971   0.971   0.971   0.971   0.971   0.971   0.971   0.971   0.971   0.971   0.971
   220.89    0.971   0.971   0.971   0.971   0.971   0.971   0.971   0.971   0.971   0.971   0.971   0.971   0.971   0.971   0.971   0.971   0.971   0.971   0.971   0.971   0.971   0.971   0.971   0.971   0.971
   209.27    0.971   0.971   0.971   0.971   0.971   0.971   0.971   0.971   0.971   0.971   0.971   0.971   0.971   0.971   0.971   0.971   0.971   0.971   0.971   0.971   0.971   0.971   0.971   0.971   0.971
   197.64    0.971   0.971   0.971   0.971   0.971   0.971   0.971   0.971   0.971   0.971   0.971   0.971   0.971   0.971   0.971   0.971   0.971   0.971   0.971   0.971   0.971   0.971   0.971   0.971   0.971
   186.01    0.971   0.971   0.971   0.971   0.971   0.971   0.971   0.971   0.971   0.971   0.971   0.971   0.971   0.971   0.971   0.971   0.971   0.971   0.971   0.971   0.971   0.971   0.971   0.971   0.971
   174.39    0.971   0.971   0.971   0.971   0.971   0.971   0.971   0.971   0.971   0.971   0.971   0.971   0.971   0.971   0.971   0.971   0.971   0.971   0.971   0.971   0.971   0.971   0.971   0.971   0.971
   162.76    0.971   0.971   0.971   0.971   0.971   0.971   0.971   0.971   0.971   0.971   0.971   0.971   0.971   0.971   0.971   0.971   0.971   0.971   0.971   0.971   0.971   0.971   0.971   0.971   0.971
   151.14    0.971   0.971   0.971   0.971   0.971   0.971   0.971   0.971   0.971   0.971   0.971   0.971   0.971   0.971   0.971   0.971   0.971   0.971   0.971   0.971   0.971   0.971   0.971   0.971   0.971
   139.51    0.971   0.971   0.971   0.971   0.971   0.971   0.971   0.971   0.971   0.971   0.971   0.971   0.971   0.971   0.971   0.971   0.971   0.971   0.971   0.971   0.971   0.971   0.971   0.971   0.971
   127.88    0.971   0.971   0.971   0.971   0.971   0.971   0.971   0.971   0.971   0.971   0.971   0.971   0.971   0.971   0.971   0.971   0.971   0.971   0.971   0.971   0.971   0.971   0.971   0.971   0.971
   116.26    0.971   0.971   0.971   0.971   0.971   0.971   0.971   0.971   0.971   0.971   0.971   0.971   0.971   0.971   0.971   0.971   0.971   0.971   0.971   0.971   0.971   0.971   0.971   0.971   0.971
   104.63    0.971   0.971   0.971   0.971   0.971   0.971   0.971   0.971   0.971   0.971   0.971   0.971   0.971   0.971   0.971   0.971   0.971   0.971   0.971   0.971   0.971   0.971   0.971   0.971   0.971
    93.01    0.971   0.971   0.971   0.971   0.971   0.971   0.971   0.971   0.971   0.971   0.971   0.971   0.971   0.971   0.971   0.971   0.971   0.971   0.971   0.971   0.971   0.971   0.971   0.971   0.971
    81.38    0.971   0.971   0.971   0.971   0.971   0.971   0.971   0.971   0.971   0.971   0.971   0.971   0.971   0.971   0.971   0.971   0.971   0.971   0.971   0.971   0.971   0.971   0.971   0.971   0.971
    69.76    0.971   0.971   0.971   0.971   0.971   0.971   0.971   0.971   0.971   0.971   0.971   0.971   0.971   0.971   0.971   0.971   0.971   0.971   0.971   0.971   0.971   0.971   0.971   0.971   0.971
    58.13    0.971   0.971   0.971   0.971   0.971   0.971   0.971   0.971   0.971   0.971   0.971   0.971   0.971   0.971   0.971   0.971   0.971   0.971   0.971   0.971   0.971   0.971   0.971   0.971   0.971
    46.50    0.971   0.971   0.971   0.971   0.971   0.971   0.971   0.971   0.971   0.971   0.971   0.971   0.971   0.971   0.971   0.971   0.971   0.971   0.971   0.971   0.971   0.971   0.971   0.971   0.971
    34.88    0.971   0.971   0.971   0.971   0.971   0.971   0.971   0.971   0.971   0.971   0.971   0.971   0.971   0.971   0.971   0.971   0.971   0.971   0.971   0.971   0.971   0.971   0.971   0.971   0.971
    23.25    0.971   0.971   0.971   0.971   0.971   0.971   0.971   0.971   0.971   0.971   0.971   0.971   0.971   0.971   0.971   0.971   0.971   0.971   0.971   0.971   0.971   0.971   0.971   0.971   0.971
    11.63    0.971   0.971   0.971   0.971   0.971   0.971   0.971   0.971   0.971   0.971   0.971   0.971   0.971   0.971   0.971   0.971   0.971   0.971   0.971   0.971   0.971   0.971   0.971   0.971   0.971
     0.00    0.971   0.971   0.971   0.971   0.971   0.971   0.971   0.971   0.971   0.971   0.971   0.971   0.971   0.971   0.971   0.971   0.971   0.971   0.971   0.971   0.971   0.971   0.971   0.971   0.971

   Height   Standard deviation at grid points for the w component:
   279.02    0.784   0.784   0.784   0.784   0.784   0.784   0.784   0.784   0.784   0.784   0.784   0.784   0.784   0.784   0.784   0.784   0.784   0.784   0.784   0.784   0.784   0.784   0.784   0.784   0.784
   267.39    0.784   0.784   0.784   0.784   0.784   0.784   0.784   0.784   0.784   0.784   0.784   0.784   0.784   0.784   0.784   0.784   0.784   0.784   0.784   0.784   0.784   0.784   0.784   0.784   0.784
   255.77    0.784   0.784   0.784   0.784   0.784   0.784   0.784   0.784   0.784   0.784   0.784   0.784   0.784   0.784   0.784   0.784   0.784   0.784   0.784   0.784   0.784   0.784   0.784   0.784   0.784
   244.14    0.784   0.784   0.784   0.784   0.784   0.784   0.784   0.784   0.784   0.784   0.784   0.784   0.784   0.784   0.784   0.784   0.784   0.784   0.784   0.784   0.784   0.784   0.784   0.784   0.784
   232.52    0.784   0.784   0.784   0.784   0.784   0.784   0.784   0.784   0.784   0.784   0.784   0.784   0.784   0.784   0.784   0.784   0.784   0.784   0.784   0.784   0.784   0.784   0.784   0.784   0.784
   220.89    0.784   0.784   0.784   0.784   0.784   0.784   0.784   0.784   0.784   0.784   0.784   0.784   0.784   0.784   0.784   0.784   0.784   0.784   0.784   0.784   0.784   0.784   0.784   0.784   0.784
   209.27    0.784   0.784   0.784   0.784   0.784   0.784   0.784   0.784   0.784   0.784   0.784   0.784   0.784   0.784   0.784   0.784   0.784   0.784   0.784   0.784   0.784   0.784   0.784   0.784   0.784
   197.64    0.784   0.784   0.784   0.784   0.784   0.784   0.784   0.784   0.784   0.784   0.784   0.784   0.784   0.784   0.784   0.784   0.784   0.784   0.784   0.784   0.784   0.784   0.784   0.784   0.784
   186.01    0.784   0.784   0.784   0.784   0.784   0.784   0.784   0.784   0.784   0.784   0.784   0.784   0.784   0.784   0.784   0.784   0.784   0.784   0.784   0.784   0.784   0.784   0.784   0.784   0.784
   174.39    0.784   0.784   0.784   0.784   0.784   0.784   0.784   0.784   0.784   0.784   0.784   0.784   0.784   0.784   0.784   0.784   0.784   0.784   0.784   0.784   0.784   0.784   0.784   0.784   0.784
   162.76    0.784   0.784   0.784   0.784   0.784   0.784   0.784   0.784   0.784   0.784   0.784   0.784   0.784   0.784   0.784   0.784   0.784   0.784   0.784   0.784   0.784   0.784   0.784   0.784   0.784
   151.14    0.784   0.784   0.784   0.784   0.784   0.784   0.784   0.784   0.784   0.784   0.784   0.784   0.784   0.784   0.784   0.784   0.784   0.784   0.784   0.784   0.784   0.784   0.784   0.784   0.784
   139.51    0.784   0.784   0.784   0.784   0.784   0.784   0.784   0.784   0.784   0.784   0.784   0.784   0.784   0.784   0.784   0.784   0.784   0.784   0.784   0.784   0.784   0.784   0.784   0.784   0.784
   127.88    0.784   0.784   0.784   0.784   0.784   0.784   0.784   0.784   0.784   0.784   0.784   0.784   0.784   0.784   0.784   0.784   0.784   0.784   0.784   0.784   0.784   0.784   0.784   0.784   0.784
   116.26    0.784   0.784   0.784   0.784   0.784   0.784   0.784   0.784   0.784   0.784   0.784   0.784   0.784   0.784   0.784   0.784   0.784   0.784   0.784   0.784   0.784   0.784   0.784   0.784   0.784
   104.63    0.784   0.784   0.784   0.784   0.784   0.784   0.784   0.784   0.784   0.784   0.784   0.784   0.784   0.784   0.784   0.784   0.784   0.784   0.784   0.784   0.784   0.784   0.784   0.784   0.784
    93.01    0.784   0.784   0.784   0.784   0.784   0.784   0.784   0.784   0.784   0.784   0.784   0.784   0.784   0.784   0.784   0.784   0.784   0.784   0.784   0.784   0.784   0.784   0.784   0.784   0.784
    81.38    0.784   0.784   0.784   0.784   0.784   0.784   0.784   0.784   0.784   0.784   0.784   0.784   0.784   0.784   0.784   0.784   0.784   0.784   0.784   0.784   0.784   0.784   0.784   0.784   0.784
    69.76    0.784   0.784   0.784   0.784   0.784   0.784   0.784   0.784   0.784   0.784   0.784   0.784   0.784   0.784   0.784   0.784   0.784   0.784   0.784   0.784   0.784   0.784   0.784   0.784   0.784
    58.13    0.784   0.784   0.784   0.784   0.784   0.784   0.784   0.784   0.784   0.784   0.784   0.784   0.784   0.784   0.784   0.784   0.784   0.784   0.784   0.784   0.784   0.784   0.784   0.784   0.784
    46.50    0.784   0.784   0.784   0.784   0.784   0.784   0.784   0.784   0.784   0.784   0.784   0.784   0.784   0.784   0.784   0.784   0.784   0.784   0.784   0.784   0.784   0.784   0.784   0.784   0.784
    34.88    0.784   0.784   0.784   0.784   0.784   0.784   0.784   0.784   0.784   0.784   0.784   0.784   0.784   0.784   0.784   0.784   0.784   0.784   0.784   0.784   0.784   0.784   0.784   0.784   0.784
    23.25    0.784   0.784   0.784   0.784   0.784   0.784   0.784   0.784   0.784   0.784   0.784   0.784   0.784   0.784   0.784   0.784   0.784   0.784   0.784   0.784   0.784   0.784   0.784   0.784   0.784
    11.63    0.784   0.784   0.784   0.784   0.784   0.784   0.784   0.784   0.784   0.784   0.784   0.784   0.784   0.784   0.784   0.784   0.784   0.784   0.784   0.784   0.784   0.784   0.784   0.784   0.784
     0.00    0.784   0.784   0.784   0.784   0.784   0.784   0.784   0.784   0.784   0.784   0.784   0.784   0.784   0.784   0.784   0.784   0.784   0.784   0.784   0.784   0.784   0.784   0.784   0.784   0.784

   Mean standard deviation across all grid points:
      u component:    0.876 m/s
      v component:    0.971 m/s
      w component:    0.784 m/s


U-component (X) statistics from the interpolated hub point:

   Mean =   8.0000 m/s
   TI   =   9.8823 %


Processing complete.  2.0586 CPU seconds used.
