
This summary file was generated by TurbSim on 06-May-2022 at 09:17:21.


Runtime Options:

1501552846  Random seed #1
    RANLUX  Type of random number generator
         F  Output binary HH turbulence parameters?
         F  Output formatted turbulence parameters?
         F  Output AeroDyn HH files?
         T  Output AeroDyn FF files?
         F  Output BLADED FF files?
         F  Output tower data?
         F  Output formatted FF files?
         F  Output coherent turbulence time step file?
         F  Clockwise rotation when looking downwind?
 0 -  NONE  IEC turbulence models scaled to exact specified standard deviation


Turbine/Model Specifications:

        25  Vertical grid-point matrix dimension
        25  Horizontal grid-point matrix dimension
     0.050  Time step [seconds]
    20.000  Analysis time [seconds]
    20.000  Usable output time [seconds]
   139.017  Hub height [m]
   278.032  Grid height [m]
   278.032  Grid width [m]
     0.000  Vertical flow angle [degrees]
     0.000  Horizontal flow angle [degrees]


Meteorological Boundary Conditions:

    IECKAI  IEC Kaimal spectral model
         1  IEC standard: IEC 61400-1 Ed. 3: 2005
         A  IEC turbulence characteristic
       NTM  IEC Normal Turbulence Model
       N/A  IEC Extreme Turbulence Model (ETM) "c" parameter [m/s]
       PL   Wind profile type
   139.017  Reference height [m]
     8.000  Reference wind speed [m/s]
       N/A  Jet height [m]
     0.200  Power law exponent
     0.030  Surface roughness length [m]


Non-IEC Meteorological Boundary Conditions:

       N/A  Site latitude [degrees]
       N/A  Gradient Richardson number
       N/A  Friction or shear velocity [m/s]
       N/A  Mixing layer depth [m]
       N/A  Mean hub u'w' Reynolds stress
       N/A  Mean hub u'v' Reynolds stress
       N/A  Mean hub v'w' Reynolds stress


Spatial Coherence Models:

       IEC  u-component coherence model
      NONE  v-component coherence model
      NONE  w-component coherence model
(   12.000, 0.353E-03)  u-component coherence parameters
                   N/A  v-component coherence parameters
                   N/A  w-component coherence parameters
       N/A  Coherence exponent


You have requested that the following file(s) be generated:

   BAR_URC_out_NTM_U8.000000_Seed1501552846.0.bts (AeroDyn/TurbSim full-field wind file)


Turbulence Simulation Scaling Parameter Summary:

   Turbulence model used                            =  IEC Kaimal
   Turbulence characteristic                        =  A
   IEC turbulence type                              =  Normal Turbulence Model
   IEC standard                                     =  IEC 61400-1 Ed. 3: 2005
   Mean wind speed at hub height                    =    8.000 m/s
   Expected value of turbulence intensity at 15 m/s =   16.000%
   Characteristic value of standard deviation       =    1.856 m/s
   Turbulence scale                                 =   42.000 m
   u-component integral scale                       =  340.200 m
   Coherency scale                                  =  340.200 m
   Characteristic value of hub turbulence intensity =   23.200%
   Gradient Richardson number                       =    0.000

   Wind profile type                                =  Power law
   Power law exponent                               =    0.200
   Mean shear across rotor disk                     =    0.031 (m/s)/m
   Assumed rotor diameter                           =  278.032 m
   Surface roughness length                         =    0.030 m

   Nyquist frequency of turbulent wind field        =   10.000 Hz

   Number of time steps in the FFT                  =      400
   Number of time steps output                      =      400
   Number of points simulated                       =      625


Mean Flow Angles:

   Vertical   =   0.0 degrees
   Horizontal =   0.0 degrees

Mean Wind Speed Profile:

   Height    Wind Speed   Horizontal Angle  Vertical Angle  U-comp (X)   V-comp (Y)   W-comp (Z)
     (m)        (m/s)         (degrees)       (degrees)       (m/s)        (m/s)        (m/s)   
   ------    ----------   ----------------  --------------  ----------   ----------   ----------
    278.0        9.19            0.00            0.00          9.19         0.00         0.00
    266.4        9.11            0.00            0.00          9.11         0.00         0.00
    254.9        9.03            0.00            0.00          9.03         0.00         0.00
    243.3        8.95            0.00            0.00          8.95         0.00         0.00
    231.7        8.86            0.00            0.00          8.86         0.00         0.00
    220.1        8.77            0.00            0.00          8.77         0.00         0.00
    208.5        8.68            0.00            0.00          8.68         0.00         0.00
    196.9        8.58            0.00            0.00          8.58         0.00         0.00
    185.4        8.47            0.00            0.00          8.47         0.00         0.00
    173.8        8.37            0.00            0.00          8.37         0.00         0.00
    162.2        8.25            0.00            0.00          8.25         0.00         0.00
    150.6        8.13            0.00            0.00          8.13         0.00         0.00
    139.0        8.00            0.00            0.00          8.00         0.00         0.00
    127.4        7.86            0.00            0.00          7.86         0.00         0.00
    115.8        7.71            0.00            0.00          7.71         0.00         0.00
    104.3        7.55            0.00            0.00          7.55         0.00         0.00
     92.7        7.38            0.00            0.00          7.38         0.00         0.00
     81.1        7.18            0.00            0.00          7.18         0.00         0.00
     69.5        6.96            0.00            0.00          6.96         0.00         0.00
     57.9        6.72            0.00            0.00          6.72         0.00         0.00
     46.3        6.42            0.00            0.00          6.42         0.00         0.00
     34.8        6.06            0.00            0.00          6.06         0.00         0.00
     23.2        5.59            0.00            0.00          5.59         0.00         0.00
     11.6        4.87            0.00            0.00          4.87         0.00         0.00
      0.0        0.66            0.00            0.00          0.66         0.00         0.00


Harvested Random Seeds after Generation of the Random Numbers:

      3484375 K 1
            0 K 2


Hub-Height Simulated Turbulence Statistical Summary:

   Type of Wind        Min (m/s)   Mean (m/s)    Max (m/s)  Sigma (m/s)       TI (%)
   ----------------    ---------   ----------    ---------  -----------       ------
   Longitudinal (u)         5.52         8.00         9.79        0.790        9.880
   Lateral (v)             -1.99        -0.00         3.00        0.971       12.136
   Vertical (w)            -1.62         0.00         2.55        0.784        9.798
   U component              5.52         8.00         9.79        0.790        9.880
   V component             -1.99        -0.00         3.00        0.971       12.136
   W component             -1.62         0.00         2.55        0.784        9.798
   Horizontal (U&V)         5.53         8.06         9.79        0.795        9.861
   Total                    5.56         8.10         9.79        0.784        9.687

                       Min Reynolds     Mean Reynolds    Max Reynolds    Correlation
   Product             Stress (m/s)^2   Stress (m/s)^2   Stress (m/s)^2  Coefficient
   ----------------    --------------   --------------   --------------  -----------
   u'w'                     -2.288            -0.203             2.229        -0.327
   u'v'                     -0.875             0.266             2.918         0.346
   v'w'                     -3.233            -0.024             2.241        -0.031


   Friction Velocity (Ustar)  =      0.450 m/s
   Maximum Instantaneous TKE  =      4.990 (m/s)^2
   Maximum Instantaneous CTKE =      2.061 (m/s)^2


Grid Point Variance Summary:

   Y-coord -139.02 -127.43 -115.85 -104.26  -92.68  -81.09  -69.51  -57.92  -46.34  -34.75  -23.17  -11.58    0.00   11.58   23.17   34.75   46.34   57.92   69.51   81.09   92.68  104.26  115.85  127.43  139.02

   Height   Standard deviation at grid points for the u component:
   278.03    0.841   0.933   0.926   0.770   0.929   0.928   0.703   0.887   0.726   0.798   0.766   0.941   0.780   0.707   0.769   0.904   0.834   0.961   0.934   1.084   0.879   0.847   1.029   1.115   0.837
   266.45    0.938   0.927   0.725   0.790   1.007   0.783   0.871   0.733   0.762   0.765   0.816   0.837   0.761   0.904   0.903   0.937   1.003   0.765   0.889   0.912   0.936   0.783   0.916   1.019   0.812
   254.86    0.767   0.753   0.818   0.725   0.658   0.706   0.859   0.667   0.949   0.807   1.003   0.757   0.725   0.946   0.727   0.687   0.804   0.817   0.783   0.790   0.911   0.839   0.759   0.885   1.006
   243.28    0.763   0.855   0.736   0.953   1.011   1.048   0.833   0.905   1.076   0.711   0.949   1.007   1.239   0.868   0.731   0.949   0.896   0.755   0.816   0.770   1.012   0.671   0.752   0.959   1.249
   231.69    0.693   0.906   0.747   0.909   0.681   0.761   0.782   0.685   0.795   1.092   1.114   1.127   0.966   1.237   1.281   0.800   0.709   0.951   0.751   0.919   1.038   0.814   1.065   0.988   1.124
   220.11    1.007   0.716   0.774   0.863   0.815   0.974   0.881   0.824   0.978   1.083   1.022   0.920   1.041   1.144   1.090   0.620   0.934   1.145   0.660   0.812   0.972   0.866   0.929   0.829   0.739
   208.52    0.939   1.066   0.721   0.815   0.864   0.901   0.783   0.848   1.007   0.987   0.795   0.857   0.866   0.909   0.754   0.864   0.926   0.917   0.900   0.926   0.827   0.675   0.681   0.920   0.885
   196.94    0.817   1.109   0.675   0.766   0.795   0.693   0.870   0.826   0.887   0.857   0.708   0.855   0.797   0.918   0.764   0.832   0.833   0.776   0.722   0.891   0.722   0.835   1.003   0.995   1.024
   185.36    0.989   1.154   1.036   0.974   0.816   1.012   1.024   0.752   0.882   1.018   0.775   0.703   0.963   1.136   0.748   0.811   0.826   0.774   0.731   0.920   0.735   0.793   0.823   0.997   1.076
   173.77    1.021   1.028   0.778   0.878   0.817   0.915   1.002   0.918   0.671   0.821   1.161   0.930   0.703   1.030   0.851   0.727   0.764   0.831   0.794   0.882   0.928   0.785   0.883   0.791   0.942
   162.19    0.966   0.810   0.853   0.827   0.666   0.794   0.922   0.656   0.851   1.009   1.028   1.059   0.808   0.888   1.241   1.330   0.874   0.959   0.731   0.772   0.802   0.845   0.684   0.955   0.745
   150.60    0.895   0.747   0.871   0.913   0.761   1.003   0.686   0.936   0.712   0.809   0.881   0.929   0.824   0.980   1.120   1.004   1.055   1.076   0.738   0.779   0.799   0.773   0.755   1.015   0.814
   139.02    1.012   0.745   0.778   0.743   0.840   0.938   0.961   0.727   0.872   0.907   0.650   0.762   0.790   0.684   0.944   0.732   0.800   0.831   0.953   0.668   0.757   0.816   0.852   0.795   0.815
   127.43    0.801   1.118   1.153   1.039   1.006   0.959   1.165   0.736   0.776   0.826   0.897   0.950   0.767   0.765   0.822   0.864   0.828   0.770   0.991   1.165   0.758   1.065   0.660   0.832   0.715
   115.85    0.840   0.930   0.992   0.775   0.759   0.816   0.863   0.996   0.938   0.992   0.691   0.824   0.862   0.769   0.782   0.767   0.785   0.726   0.871   0.997   0.925   1.194   0.968   0.880   0.893
   104.26    0.775   0.781   0.963   1.036   0.659   0.973   0.946   0.745   1.014   0.987   0.696   0.797   0.878   0.813   0.693   0.856   0.711   0.894   0.676   0.896   0.686   1.063   0.972   0.749   0.787
    92.68    0.830   1.000   0.802   0.789   0.890   0.846   0.747   0.937   1.086   0.799   0.928   1.065   0.947   1.001   1.103   0.683   0.739   0.918   0.944   0.664   1.057   1.195   0.870   1.080   0.928
    81.09    0.861   0.821   0.884   0.769   0.962   0.681   0.911   0.719   0.791   0.989   0.862   0.774   0.872   0.779   1.150   1.221   0.686   0.884   1.064   1.088   1.038   0.995   0.895   0.854   1.051
    69.51    0.765   0.972   0.685   0.778   0.882   0.940   0.790   0.874   1.095   1.163   0.706   1.035   0.711   0.915   0.833   0.980   1.156   0.718   0.833   0.967   0.862   0.779   0.807   0.784   0.905
    57.92    0.775   0.889   1.016   0.897   0.870   0.739   0.707   0.849   1.091   1.266   0.734   0.907   0.903   0.804   0.697   0.813   0.860   1.046   0.874   0.802   0.975   0.860   0.683   0.931   0.810
    46.34    0.810   0.759   0.910   0.667   0.819   0.795   0.991   0.772   0.835   0.995   0.805   0.809   0.797   0.869   0.960   0.701   1.009   0.854   0.802   0.880   1.018   0.641   0.877   0.887   0.657
    34.75    0.765   0.840   0.928   1.014   0.817   0.852   0.800   0.923   0.694   0.731   0.866   0.989   1.135   1.014   0.975   1.051   1.049   0.986   0.742   0.814   0.964   1.230   1.212   0.943   1.049
    23.17    0.812   0.749   0.843   0.997   0.800   0.814   0.773   0.784   0.884   0.768   1.025   0.757   1.205   0.831   0.853   0.956   0.876   0.823   0.780   0.771   0.865   1.112   1.090   0.720   0.829
    11.59    0.921   0.981   0.821   0.726   0.956   1.137   0.805   0.791   0.783   0.883   0.757   0.885   1.127   1.107   1.085   1.004   0.971   0.913   0.671   0.876   0.921   0.950   0.810   0.950   0.930
     0.00    0.900   0.713   0.931   0.824   1.014   0.932   0.802   0.872   0.819   0.738   0.849   0.761   0.845   1.014   0.902   0.711   0.788   0.765   0.777   0.915   0.944   0.725   0.913   0.829   1.023

   Height   Standard deviation at grid points for the v component:
   278.03    0.971   0.971   0.971   0.971   0.971   0.971   0.971   0.971   0.971   0.971   0.971   0.971   0.971   0.971   0.971   0.971   0.971   0.971   0.971   0.971   0.971   0.971   0.971   0.971   0.971
   266.45    0.971   0.971   0.971   0.971   0.971   0.971   0.971   0.971   0.971   0.971   0.971   0.971   0.971   0.971   0.971   0.971   0.971   0.971   0.971   0.971   0.971   0.971   0.971   0.971   0.971
   254.86    0.971   0.971   0.971   0.971   0.971   0.971   0.971   0.971   0.971   0.971   0.971   0.971   0.971   0.971   0.971   0.971   0.971   0.971   0.971   0.971   0.971   0.971   0.971   0.971   0.971
   243.28    0.971   0.971   0.971   0.971   0.971   0.971   0.971   0.971   0.971   0.971   0.971   0.971   0.971   0.971   0.971   0.971   0.971   0.971   0.971   0.971   0.971   0.971   0.971   0.971   0.971
   231.69    0.971   0.971   0.971   0.971   0.971   0.971   0.971   0.971   0.971   0.971   0.971   0.971   0.971   0.971   0.971   0.971   0.971   0.971   0.971   0.971   0.971   0.971   0.971   0.971   0.971
   220.11    0.971   0.971   0.971   0.971   0.971   0.971   0.971   0.971   0.971   0.971   0.971   0.971   0.971   0.971   0.971   0.971   0.971   0.971   0.971   0.971   0.971   0.971   0.971   0.971   0.971
   208.52    0.971   0.971   0.971   0.971   0.971   0.971   0.971   0.971   0.971   0.971   0.971   0.971   0.971   0.971   0.971   0.971   0.971   0.971   0.971   0.971   0.971   0.971   0.971   0.971   0.971
   196.94    0.971   0.971   0.971   0.971   0.971   0.971   0.971   0.971   0.971   0.971   0.971   0.971   0.971   0.971   0.971   0.971   0.971   0.971   0.971   0.971   0.971   0.971   0.971   0.971   0.971
   185.36    0.971   0.971   0.971   0.971   0.971   0.971   0.971   0.971   0.971   0.971   0.971   0.971   0.971   0.971   0.971   0.971   0.971   0.971   0.971   0.971   0.971   0.971   0.971   0.971   0.971
   173.77    0.971   0.971   0.971   0.971   0.971   0.971   0.971   0.971   0.971   0.971   0.971   0.971   0.971   0.971   0.971   0.971   0.971   0.971   0.971   0.971   0.971   0.971   0.971   0.971   0.971
   162.19    0.971   0.971   0.971   0.971   0.971   0.971   0.971   0.971   0.971   0.971   0.971   0.971   0.971   0.971   0.971   0.971   0.971   0.971   0.971   0.971   0.971   0.971   0.971   0.971   0.971
   150.60    0.971   0.971   0.971   0.971   0.971   0.971   0.971   0.971   0.971   0.971   0.971   0.971   0.971   0.971   0.971   0.971   0.971   0.971   0.971   0.971   0.971   0.971   0.971   0.971   0.971
   139.02    0.971   0.971   0.971   0.971   0.971   0.971   0.971   0.971   0.971   0.971   0.971   0.971   0.971   0.971   0.971   0.971   0.971   0.971   0.971   0.971   0.971   0.971   0.971   0.971   0.971
   127.43    0.971   0.971   0.971   0.971   0.971   0.971   0.971   0.971   0.971   0.971   0.971   0.971   0.971   0.971   0.971   0.971   0.971   0.971   0.971   0.971   0.971   0.971   0.971   0.971   0.971
   115.85    0.971   0.971   0.971   0.971   0.971   0.971   0.971   0.971   0.971   0.971   0.971   0.971   0.971   0.971   0.971   0.971   0.971   0.971   0.971   0.971   0.971   0.971   0.971   0.971   0.971
   104.26    0.971   0.971   0.971   0.971   0.971   0.971   0.971   0.971   0.971   0.971   0.971   0.971   0.971   0.971   0.971   0.971   0.971   0.971   0.971   0.971   0.971   0.971   0.971   0.971   0.971
    92.68    0.971   0.971   0.971   0.971   0.971   0.971   0.971   0.971   0.971   0.971   0.971   0.971   0.971   0.971   0.971   0.971   0.971   0.971   0.971   0.971   0.971   0.971   0.971   0.971   0.971
    81.09    0.971   0.971   0.971   0.971   0.971   0.971   0.971   0.971   0.971   0.971   0.971   0.971   0.971   0.971   0.971   0.971   0.971   0.971   0.971   0.971   0.971   0.971   0.971   0.971   0.971
    69.51    0.971   0.971   0.971   0.971   0.971   0.971   0.971   0.971   0.971   0.971   0.971   0.971   0.971   0.971   0.971   0.971   0.971   0.971   0.971   0.971   0.971   0.971   0.971   0.971   0.971
    57.92    0.971   0.971   0.971   0.971   0.971   0.971   0.971   0.971   0.971   0.971   0.971   0.971   0.971   0.971   0.971   0.971   0.971   0.971   0.971   0.971   0.971   0.971   0.971   0.971   0.971
    46.34    0.971   0.971   0.971   0.971   0.971   0.971   0.971   0.971   0.971   0.971   0.971   0.971   0.971   0.971   0.971   0.971   0.971   0.971   0.971   0.971   0.971   0.971   0.971   0.971   0.971
    34.75    0.971   0.971   0.971   0.971   0.971   0.971   0.971   0.971   0.971   0.971   0.971   0.971   0.971   0.971   0.971   0.971   0.971   0.971   0.971   0.971   0.971   0.971   0.971   0.971   0.971
    23.17    0.971   0.971   0.971   0.971   0.971   0.971   0.971   0.971   0.971   0.971   0.971   0.971   0.971   0.971   0.971   0.971   0.971   0.971   0.971   0.971   0.971   0.971   0.971   0.971   0.971
    11.59    0.971   0.971   0.971   0.971   0.971   0.971   0.971   0.971   0.971   0.971   0.971   0.971   0.971   0.971   0.971   0.971   0.971   0.971   0.971   0.971   0.971   0.971   0.971   0.971   0.971
     0.00    0.971   0.971   0.971   0.971   0.971   0.971   0.971   0.971   0.971   0.971   0.971   0.971   0.971   0.971   0.971   0.971   0.971   0.971   0.971   0.971   0.971   0.971   0.971   0.971   0.971

   Height   Standard deviation at grid points for the w component:
   278.03    0.784   0.784   0.784   0.784   0.784   0.784   0.784   0.784   0.784   0.784   0.784   0.784   0.784   0.784   0.784   0.784   0.784   0.784   0.784   0.784   0.784   0.784   0.784   0.784   0.784
   266.45    0.784   0.784   0.784   0.784   0.784   0.784   0.784   0.784   0.784   0.784   0.784   0.784   0.784   0.784   0.784   0.784   0.784   0.784   0.784   0.784   0.784   0.784   0.784   0.784   0.784
   254.86    0.784   0.784   0.784   0.784   0.784   0.784   0.784   0.784   0.784   0.784   0.784   0.784   0.784   0.784   0.784   0.784   0.784   0.784   0.784   0.784   0.784   0.784   0.784   0.784   0.784
   243.28    0.784   0.784   0.784   0.784   0.784   0.784   0.784   0.784   0.784   0.784   0.784   0.784   0.784   0.784   0.784   0.784   0.784   0.784   0.784   0.784   0.784   0.784   0.784   0.784   0.784
   231.69    0.784   0.784   0.784   0.784   0.784   0.784   0.784   0.784   0.784   0.784   0.784   0.784   0.784   0.784   0.784   0.784   0.784   0.784   0.784   0.784   0.784   0.784   0.784   0.784   0.784
   220.11    0.784   0.784   0.784   0.784   0.784   0.784   0.784   0.784   0.784   0.784   0.784   0.784   0.784   0.784   0.784   0.784   0.784   0.784   0.784   0.784   0.784   0.784   0.784   0.784   0.784
   208.52    0.784   0.784   0.784   0.784   0.784   0.784   0.784   0.784   0.784   0.784   0.784   0.784   0.784   0.784   0.784   0.784   0.784   0.784   0.784   0.784   0.784   0.784   0.784   0.784   0.784
   196.94    0.784   0.784   0.784   0.784   0.784   0.784   0.784   0.784   0.784   0.784   0.784   0.784   0.784   0.784   0.784   0.784   0.784   0.784   0.784   0.784   0.784   0.784   0.784   0.784   0.784
   185.36    0.784   0.784   0.784   0.784   0.784   0.784   0.784   0.784   0.784   0.784   0.784   0.784   0.784   0.784   0.784   0.784   0.784   0.784   0.784   0.784   0.784   0.784   0.784   0.784   0.784
   173.77    0.784   0.784   0.784   0.784   0.784   0.784   0.784   0.784   0.784   0.784   0.784   0.784   0.784   0.784   0.784   0.784   0.784   0.784   0.784   0.784   0.784   0.784   0.784   0.784   0.784
   162.19    0.784   0.784   0.784   0.784   0.784   0.784   0.784   0.784   0.784   0.784   0.784   0.784   0.784   0.784   0.784   0.784   0.784   0.784   0.784   0.784   0.784   0.784   0.784   0.784   0.784
   150.60    0.784   0.784   0.784   0.784   0.784   0.784   0.784   0.784   0.784   0.784   0.784   0.784   0.784   0.784   0.784   0.784   0.784   0.784   0.784   0.784   0.784   0.784   0.784   0.784   0.784
   139.02    0.784   0.784   0.784   0.784   0.784   0.784   0.784   0.784   0.784   0.784   0.784   0.784   0.784   0.784   0.784   0.784   0.784   0.784   0.784   0.784   0.784   0.784   0.784   0.784   0.784
   127.43    0.784   0.784   0.784   0.784   0.784   0.784   0.784   0.784   0.784   0.784   0.784   0.784   0.784   0.784   0.784   0.784   0.784   0.784   0.784   0.784   0.784   0.784   0.784   0.784   0.784
   115.85    0.784   0.784   0.784   0.784   0.784   0.784   0.784   0.784   0.784   0.784   0.784   0.784   0.784   0.784   0.784   0.784   0.784   0.784   0.784   0.784   0.784   0.784   0.784   0.784   0.784
   104.26    0.784   0.784   0.784   0.784   0.784   0.784   0.784   0.784   0.784   0.784   0.784   0.784   0.784   0.784   0.784   0.784   0.784   0.784   0.784   0.784   0.784   0.784   0.784   0.784   0.784
    92.68    0.784   0.784   0.784   0.784   0.784   0.784   0.784   0.784   0.784   0.784   0.784   0.784   0.784   0.784   0.784   0.784   0.784   0.784   0.784   0.784   0.784   0.784   0.784   0.784   0.784
    81.09    0.784   0.784   0.784   0.784   0.784   0.784   0.784   0.784   0.784   0.784   0.784   0.784   0.784   0.784   0.784   0.784   0.784   0.784   0.784   0.784   0.784   0.784   0.784   0.784   0.784
    69.51    0.784   0.784   0.784   0.784   0.784   0.784   0.784   0.784   0.784   0.784   0.784   0.784   0.784   0.784   0.784   0.784   0.784   0.784   0.784   0.784   0.784   0.784   0.784   0.784   0.784
    57.92    0.784   0.784   0.784   0.784   0.784   0.784   0.784   0.784   0.784   0.784   0.784   0.784   0.784   0.784   0.784   0.784   0.784   0.784   0.784   0.784   0.784   0.784   0.784   0.784   0.784
    46.34    0.784   0.784   0.784   0.784   0.784   0.784   0.784   0.784   0.784   0.784   0.784   0.784   0.784   0.784   0.784   0.784   0.784   0.784   0.784   0.784   0.784   0.784   0.784   0.784   0.784
    34.75    0.784   0.784   0.784   0.784   0.784   0.784   0.784   0.784   0.784   0.784   0.784   0.784   0.784   0.784   0.784   0.784   0.784   0.784   0.784   0.784   0.784   0.784   0.784   0.784   0.784
    23.17    0.784   0.784   0.784   0.784   0.784   0.784   0.784   0.784   0.784   0.784   0.784   0.784   0.784   0.784   0.784   0.784   0.784   0.784   0.784   0.784   0.784   0.784   0.784   0.784   0.784
    11.59    0.784   0.784   0.784   0.784   0.784   0.784   0.784   0.784   0.784   0.784   0.784   0.784   0.784   0.784   0.784   0.784   0.784   0.784   0.784   0.784   0.784   0.784   0.784   0.784   0.784
     0.00    0.784   0.784   0.784   0.784   0.784   0.784   0.784   0.784   0.784   0.784   0.784   0.784   0.784   0.784   0.784   0.784   0.784   0.784   0.784   0.784   0.784   0.784   0.784   0.784   0.784

   Mean standard deviation across all grid points:
      u component:    0.876 m/s
      v component:    0.971 m/s
      w component:    0.784 m/s


U-component (X) statistics from the interpolated hub point:

   Mean =   8.0000 m/s
   TI   =   9.8798 %


Processing complete.  1.9723 CPU seconds used.
