
This summary file was generated by TurbSim on 04-May-2022 at 08:39:47.


Runtime Options:

1501552846  Random seed #1
    RANLUX  Type of random number generator
         F  Output binary HH turbulence parameters?
         F  Output formatted turbulence parameters?
         F  Output AeroDyn HH files?
         T  Output AeroDyn FF files?
         F  Output BLADED FF files?
         F  Output tower data?
         F  Output formatted FF files?
         F  Output coherent turbulence time step file?
         F  Clockwise rotation when looking downwind?
 0 -  NONE  IEC turbulence models scaled to exact specified standard deviation


Turbine/Model Specifications:

        25  Vertical grid-point matrix dimension
        25  Horizontal grid-point matrix dimension
     0.050  Time step [seconds]
    20.000  Analysis time [seconds]
    20.000  Usable output time [seconds]
   417.050  Hub height [m]
   834.097  Grid height [m]
   834.097  Grid width [m]
     0.000  Vertical flow angle [degrees]
     0.000  Horizontal flow angle [degrees]


Meteorological Boundary Conditions:

    IECKAI  IEC Kaimal spectral model
         1  IEC standard: IEC 61400-1 Ed. 3: 2005
         A  IEC turbulence characteristic
       NTM  IEC Normal Turbulence Model
       N/A  IEC Extreme Turbulence Model (ETM) "c" parameter [m/s]
       PL   Wind profile type
   139.017  Reference height [m]
     8.000  Reference wind speed [m/s]
       N/A  Jet height [m]
     0.200  Power law exponent
     0.030  Surface roughness length [m]


Non-IEC Meteorological Boundary Conditions:

       N/A  Site latitude [degrees]
       N/A  Gradient Richardson number
       N/A  Friction or shear velocity [m/s]
       N/A  Mixing layer depth [m]
       N/A  Mean hub u'w' Reynolds stress
       N/A  Mean hub u'v' Reynolds stress
       N/A  Mean hub v'w' Reynolds stress


Spatial Coherence Models:

       IEC  u-component coherence model
      NONE  v-component coherence model
      NONE  w-component coherence model
(   12.000, 0.353E-03)  u-component coherence parameters
                   N/A  v-component coherence parameters
                   N/A  w-component coherence parameters
       N/A  Coherence exponent


You have requested that the following file(s) be generated:

   BAR_URC_out_NTM_U8.000000_Seed1501552846.0.bts (AeroDyn/TurbSim full-field wind file)


Turbulence Simulation Scaling Parameter Summary:

   Turbulence model used                            =  IEC Kaimal
   Turbulence characteristic                        =  A
   IEC turbulence type                              =  Normal Turbulence Model
   IEC standard                                     =  IEC 61400-1 Ed. 3: 2005
   Mean wind speed at hub height                    =    9.966 m/s
   Expected value of turbulence intensity at 15 m/s =   16.000%
   Characteristic value of standard deviation       =    2.092 m/s
   Turbulence scale                                 =   42.000 m
   u-component integral scale                       =  340.200 m
   Coherency scale                                  =  340.200 m
   Characteristic value of hub turbulence intensity =   20.991%
   Gradient Richardson number                       =    0.000

   Wind profile type                                =  Power law
   Power law exponent                               =    0.200
   Mean shear across rotor disk                     =    0.013 (m/s)/m
   Assumed rotor diameter                           =  834.097 m
   Surface roughness length                         =    0.030 m

   Nyquist frequency of turbulent wind field        =   10.000 Hz

   Number of time steps in the FFT                  =      400
   Number of time steps output                      =      400
   Number of points simulated                       =      625


Mean Flow Angles:

   Vertical   =   0.0 degrees
   Horizontal =   0.0 degrees

Mean Wind Speed Profile:

   Height    Wind Speed   Horizontal Angle  Vertical Angle  U-comp (X)   V-comp (Y)   W-comp (Z)
     (m)        (m/s)         (degrees)       (degrees)       (m/s)        (m/s)        (m/s)   
   ------    ----------   ----------------  --------------  ----------   ----------   ----------
    834.1       11.45            0.00            0.00         11.45         0.00         0.00
    799.3       11.35            0.00            0.00         11.35         0.00         0.00
    764.6       11.25            0.00            0.00         11.25         0.00         0.00
    729.8       11.15            0.00            0.00         11.15         0.00         0.00
    695.1       11.04            0.00            0.00         11.04         0.00         0.00
    660.3       10.93            0.00            0.00         10.93         0.00         0.00
    625.6       10.81            0.00            0.00         10.81         0.00         0.00
    590.8       10.68            0.00            0.00         10.68         0.00         0.00
    556.1       10.56            0.00            0.00         10.56         0.00         0.00
    521.3       10.42            0.00            0.00         10.42         0.00         0.00
    486.6       10.28            0.00            0.00         10.28         0.00         0.00
    451.8       10.13            0.00            0.00         10.13         0.00         0.00
    417.1        9.97            0.00            0.00          9.97         0.00         0.00
    382.3        9.79            0.00            0.00          9.79         0.00         0.00
    347.5        9.61            0.00            0.00          9.61         0.00         0.00
    312.8        9.41            0.00            0.00          9.41         0.00         0.00
    278.0        9.19            0.00            0.00          9.19         0.00         0.00
    243.3        8.95            0.00            0.00          8.95         0.00         0.00
    208.5        8.68            0.00            0.00          8.68         0.00         0.00
    173.8        8.37            0.00            0.00          8.37         0.00         0.00
    139.0        8.00            0.00            0.00          8.00         0.00         0.00
    104.3        7.55            0.00            0.00          7.55         0.00         0.00
     69.5        6.96            0.00            0.00          6.96         0.00         0.00
     34.8        6.06            0.00            0.00          6.06         0.00         0.00
      0.0        0.82            0.00            0.00          0.82         0.00         0.00


Harvested Random Seeds after Generation of the Random Numbers:

      3484375 K 1
            0 K 2


Hub-Height Simulated Turbulence Statistical Summary:

   Type of Wind        Min (m/s)   Mean (m/s)    Max (m/s)  Sigma (m/s)       TI (%)
   ----------------    ---------   ----------    ---------  -----------       ------
   Longitudinal (u)         6.89         9.97        12.28        1.030       10.334
   Lateral (v)             -2.38         0.00         3.58        1.152       11.556
   Vertical (w)            -1.89         0.00         2.97        0.905        9.077
   U component              6.89         9.97        12.28        1.030       10.334
   V component             -2.38         0.00         3.58        1.152       11.556
   W component             -1.89         0.00         2.97        0.905        9.077
   Horizontal (U&V)         6.90        10.03        12.29        1.035       10.314
   Total                    6.93        10.07        12.29        1.020       10.129

                       Min Reynolds     Mean Reynolds    Max Reynolds    Correlation
   Product             Stress (m/s)^2   Stress (m/s)^2   Stress (m/s)^2  Coefficient
   ----------------    --------------   --------------   --------------  -----------
   u'w'                     -3.614            -0.301             3.519        -0.323
   u'v'                     -1.247             0.416             4.449         0.351
   v'w'                     -4.462            -0.022             3.198        -0.021


   Friction Velocity (Ustar)  =      0.548 m/s
   Maximum Instantaneous TKE  =      7.112 (m/s)^2
   Maximum Instantaneous CTKE =      3.020 (m/s)^2


Grid Point Variance Summary:

   Y-coord -417.05 -382.29 -347.54 -312.79 -278.03 -243.28 -208.52 -173.77 -139.02 -104.26  -69.51  -34.75    0.00   34.75   69.51  104.26  139.02  173.77  208.52  243.28  278.03  312.79  347.54  382.29  417.05

   Height   Standard deviation at grid points for the u component:
   834.10    1.063   1.103   1.084   1.024   1.111   1.086   0.995   1.098   0.992   1.068   1.032   1.109   1.050   0.998   1.044   1.068   1.070   1.065   1.081   1.133   1.088   1.087   1.167   1.166   0.992
   799.34    1.121   1.128   0.980   1.067   1.199   1.021   1.086   1.038   1.071   1.023   1.063   1.108   0.965   1.093   1.100   1.140   1.141   0.989   1.055   1.109   1.089   1.040   1.157   1.172   1.049
   764.59    1.039   1.028   1.107   0.983   0.995   1.041   1.027   0.986   1.093   1.087   1.131   1.032   1.055   1.161   1.019   0.986   1.041   1.053   1.057   1.013   1.081   1.047   1.069   1.098   1.121
   729.84    1.044   1.064   1.008   1.148   1.173   1.169   1.044   1.072   1.174   0.956   1.076   1.106   1.173   1.021   1.042   1.095   1.111   1.006   1.073   1.037   1.134   1.025   1.065   1.098   1.219
   695.08    1.027   1.080   0.999   1.075   1.023   1.036   1.004   1.057   1.042   1.139   1.153   1.120   1.080   1.183   1.198   1.050   1.049   1.085   1.045   1.068   1.144   1.027   1.188   1.133   1.193
   660.33    1.120   1.014   1.005   1.084   1.040   1.131   1.067   1.034   1.096   1.180   1.135   1.076   1.162   1.148   1.159   0.957   1.082   1.191   0.983   1.010   1.139   1.100   1.157   1.046   1.069
   625.57    1.066   1.126   1.011   1.132   1.074   1.090   1.055   1.107   1.116   1.134   1.071   1.054   1.106   1.046   1.023   1.110   1.098   1.131   1.078   1.102   1.054   0.982   1.029   1.057   1.082
   590.82    1.024   1.138   0.950   1.034   1.067   1.019   1.079   1.004   1.076   1.087   0.990   1.103   1.020   1.103   1.064   1.032   1.037   1.048   1.024   1.088   1.038   1.039   1.158   1.142   1.106
   556.07    1.089   1.185   1.108   1.123   1.007   1.105   1.150   0.986   1.133   1.183   1.049   1.020   1.151   1.184   1.056   1.050   1.088   1.023   0.994   1.118   0.999   1.044   1.037   1.169   1.166
   521.31    1.119   1.144   0.990   1.056   1.087   1.100   1.142   1.134   0.970   1.026   1.162   1.073   0.987   1.143   0.992   1.036   1.044   1.106   1.060   1.110   1.142   1.046   1.056   1.023   1.112
   486.56    1.107   1.060   1.082   1.029   1.028   1.066   1.135   0.962   1.126   1.160   1.138   1.146   1.024   1.112   1.215   1.205   1.006   1.096   1.053   1.043   1.037   1.064   0.974   1.094   0.980
   451.80    1.093   1.041   1.034   1.051   1.025   1.098   1.004   1.165   0.980   1.076   1.129   1.128   1.053   1.110   1.174   1.101   1.162   1.170   1.042   0.994   1.039   1.052   1.029   1.169   1.024
   417.05    1.101   0.974   1.039   0.985   1.071   1.085   1.088   1.065   1.087   1.080   0.967   1.029   1.030   0.986   1.080   1.003   1.051   1.103   1.079   0.972   1.062   1.087   1.021   1.084   1.028
   382.30    1.041   1.188   1.162   1.099   1.086   1.094   1.191   0.982   1.070   1.078   1.066   1.108   1.046   1.034   1.050   1.065   1.059   1.033   1.133   1.195   1.007   1.119   0.978   1.039   1.048
   347.54    1.087   1.127   1.101   1.043   1.049   1.072   1.033   1.098   1.091   1.087   1.000   1.062   1.084   1.001   1.064   1.045   1.029   1.015   1.109   1.122   1.066   1.180   1.109   0.998   1.078
   312.79    1.042   1.015   1.154   1.186   0.949   1.114   1.076   1.003   1.112   1.063   1.005   1.039   1.072   1.047   1.012   1.154   0.983   1.072   1.018   1.028   0.972   1.093   1.060   1.046   1.076
   278.03    1.060   1.153   1.015   1.079   1.122   1.089   1.036   1.158   1.175   1.037   1.115   1.184   1.128   1.165   1.137   0.988   1.048   1.136   1.082   0.947   1.110   1.206   1.022   1.148   1.051
   243.28    1.103   1.048   1.101   0.985   1.105   0.983   1.052   1.008   1.086   1.092   1.071   1.050   1.087   1.052   1.215   1.185   0.958   1.149   1.157   1.168   1.158   1.159   1.078   1.081   1.158
   208.53    1.021   1.115   0.951   1.037   1.145   1.089   1.026   1.043   1.164   1.184   1.051   1.168   0.996   1.143   1.076   1.139   1.169   0.975   1.127   1.139   1.061   1.083   1.033   1.037   1.063
   173.77    1.043   1.121   1.173   1.120   1.017   1.030   0.983   1.127   1.178   1.235   0.952   1.105   1.089   1.023   0.992   1.129   1.037   1.138   1.096   1.054   1.119   1.109   0.990   1.103   1.049
   139.02    1.045   1.012   1.095   0.975   1.097   1.055   1.139   1.005   1.090   1.175   1.069   1.079   1.026   1.038   1.046   0.998   1.150   1.074   1.072   1.122   1.091   0.949   1.099   1.068   0.985
   104.26    1.019   1.072   1.070   1.140   1.068   1.119   1.068   1.121   0.987   1.047   1.066   1.100   1.150   1.089   1.078   1.124   1.160   1.110   1.009   1.065   1.089   1.191   1.173   1.097   1.151
    69.51    1.035   1.066   1.096   1.182   1.026   1.015   1.002   1.026   1.078   1.001   1.164   1.002   1.177   1.017   1.002   1.071   1.068   1.065   1.040   1.036   1.089   1.171   1.168   1.010   1.026
    34.76    1.104   1.143   1.050   1.053   1.127   1.179   1.021   1.074   1.048   1.108   1.015   1.066   1.191   1.163   1.141   1.110   1.130   1.079   1.000   1.091   1.075   1.089   1.035   1.114   1.070
     0.00    1.082   1.020   1.127   1.051   1.132   1.094   1.028   1.088   1.056   1.023   1.078   1.028   1.061   1.131   1.073   1.029   1.026   1.039   1.035   1.099   1.090   1.019   1.105   1.066   1.131

   Height   Standard deviation at grid points for the v component:
   834.10    1.152   1.152   1.152   1.152   1.152   1.152   1.152   1.152   1.152   1.152   1.152   1.152   1.152   1.152   1.152   1.152   1.152   1.152   1.152   1.152   1.152   1.152   1.152   1.152   1.152
   799.34    1.152   1.152   1.152   1.152   1.152   1.152   1.152   1.152   1.152   1.152   1.152   1.152   1.152   1.152   1.152   1.152   1.152   1.152   1.152   1.152   1.152   1.152   1.152   1.152   1.152
   764.59    1.152   1.152   1.152   1.152   1.152   1.152   1.152   1.152   1.152   1.152   1.152   1.152   1.152   1.152   1.152   1.152   1.152   1.152   1.152   1.152   1.152   1.152   1.152   1.152   1.152
   729.84    1.152   1.152   1.152   1.152   1.152   1.152   1.152   1.152   1.152   1.152   1.152   1.152   1.152   1.152   1.152   1.152   1.152   1.152   1.152   1.152   1.152   1.152   1.152   1.152   1.152
   695.08    1.152   1.152   1.152   1.152   1.152   1.152   1.152   1.152   1.152   1.152   1.152   1.152   1.152   1.152   1.152   1.152   1.152   1.152   1.152   1.152   1.152   1.152   1.152   1.152   1.152
   660.33    1.152   1.152   1.152   1.152   1.152   1.152   1.152   1.152   1.152   1.152   1.152   1.152   1.152   1.152   1.152   1.152   1.152   1.152   1.152   1.152   1.152   1.152   1.152   1.152   1.152
   625.57    1.152   1.152   1.152   1.152   1.152   1.152   1.152   1.152   1.152   1.152   1.152   1.152   1.152   1.152   1.152   1.152   1.152   1.152   1.152   1.152   1.152   1.152   1.152   1.152   1.152
   590.82    1.152   1.152   1.152   1.152   1.152   1.152   1.152   1.152   1.152   1.152   1.152   1.152   1.152   1.152   1.152   1.152   1.152   1.152   1.152   1.152   1.152   1.152   1.152   1.152   1.152
   556.07    1.152   1.152   1.152   1.152   1.152   1.152   1.152   1.152   1.152   1.152   1.152   1.152   1.152   1.152   1.152   1.152   1.152   1.152   1.152   1.152   1.152   1.152   1.152   1.152   1.152
   521.31    1.152   1.152   1.152   1.152   1.152   1.152   1.152   1.152   1.152   1.152   1.152   1.152   1.152   1.152   1.152   1.152   1.152   1.152   1.152   1.152   1.152   1.152   1.152   1.152   1.152
   486.56    1.152   1.152   1.152   1.152   1.152   1.152   1.152   1.152   1.152   1.152   1.152   1.152   1.152   1.152   1.152   1.152   1.152   1.152   1.152   1.152   1.152   1.152   1.152   1.152   1.152
   451.80    1.152   1.152   1.152   1.152   1.152   1.152   1.152   1.152   1.152   1.152   1.152   1.152   1.152   1.152   1.152   1.152   1.152   1.152   1.152   1.152   1.152   1.152   1.152   1.152   1.152
   417.05    1.152   1.152   1.152   1.152   1.152   1.152   1.152   1.152   1.152   1.152   1.152   1.152   1.152   1.152   1.152   1.152   1.152   1.152   1.152   1.152   1.152   1.152   1.152   1.152   1.152
   382.30    1.152   1.152   1.152   1.152   1.152   1.152   1.152   1.152   1.152   1.152   1.152   1.152   1.152   1.152   1.152   1.152   1.152   1.152   1.152   1.152   1.152   1.152   1.152   1.152   1.152
   347.54    1.152   1.152   1.152   1.152   1.152   1.152   1.152   1.152   1.152   1.152   1.152   1.152   1.152   1.152   1.152   1.152   1.152   1.152   1.152   1.152   1.152   1.152   1.152   1.152   1.152
   312.79    1.152   1.152   1.152   1.152   1.152   1.152   1.152   1.152   1.152   1.152   1.152   1.152   1.152   1.152   1.152   1.152   1.152   1.152   1.152   1.152   1.152   1.152   1.152   1.152   1.152
   278.03    1.152   1.152   1.152   1.152   1.152   1.152   1.152   1.152   1.152   1.152   1.152   1.152   1.152   1.152   1.152   1.152   1.152   1.152   1.152   1.152   1.152   1.152   1.152   1.152   1.152
   243.28    1.152   1.152   1.152   1.152   1.152   1.152   1.152   1.152   1.152   1.152   1.152   1.152   1.152   1.152   1.152   1.152   1.152   1.152   1.152   1.152   1.152   1.152   1.152   1.152   1.152
   208.53    1.152   1.152   1.152   1.152   1.152   1.152   1.152   1.152   1.152   1.152   1.152   1.152   1.152   1.152   1.152   1.152   1.152   1.152   1.152   1.152   1.152   1.152   1.152   1.152   1.152
   173.77    1.152   1.152   1.152   1.152   1.152   1.152   1.152   1.152   1.152   1.152   1.152   1.152   1.152   1.152   1.152   1.152   1.152   1.152   1.152   1.152   1.152   1.152   1.152   1.152   1.152
   139.02    1.152   1.152   1.152   1.152   1.152   1.152   1.152   1.152   1.152   1.152   1.152   1.152   1.152   1.152   1.152   1.152   1.152   1.152   1.152   1.152   1.152   1.152   1.152   1.152   1.152
   104.26    1.152   1.152   1.152   1.152   1.152   1.152   1.152   1.152   1.152   1.152   1.152   1.152   1.152   1.152   1.152   1.152   1.152   1.152   1.152   1.152   1.152   1.152   1.152   1.152   1.152
    69.51    1.152   1.152   1.152   1.152   1.152   1.152   1.152   1.152   1.152   1.152   1.152   1.152   1.152   1.152   1.152   1.152   1.152   1.152   1.152   1.152   1.152   1.152   1.152   1.152   1.152
    34.76    1.152   1.152   1.152   1.152   1.152   1.152   1.152   1.152   1.152   1.152   1.152   1.152   1.152   1.152   1.152   1.152   1.152   1.152   1.152   1.152   1.152   1.152   1.152   1.152   1.152
     0.00    1.152   1.152   1.152   1.152   1.152   1.152   1.152   1.152   1.152   1.152   1.152   1.152   1.152   1.152   1.152   1.152   1.152   1.152   1.152   1.152   1.152   1.152   1.152   1.152   1.152

   Height   Standard deviation at grid points for the w component:
   834.10    0.905   0.905   0.905   0.905   0.905   0.905   0.905   0.905   0.905   0.905   0.905   0.905   0.905   0.905   0.905   0.905   0.905   0.905   0.905   0.905   0.905   0.905   0.905   0.905   0.905
   799.34    0.905   0.905   0.905   0.905   0.905   0.905   0.905   0.905   0.905   0.905   0.905   0.905   0.905   0.905   0.905   0.905   0.905   0.905   0.905   0.905   0.905   0.905   0.905   0.905   0.905
   764.59    0.905   0.905   0.905   0.905   0.905   0.905   0.905   0.905   0.905   0.905   0.905   0.905   0.905   0.905   0.905   0.905   0.905   0.905   0.905   0.905   0.905   0.905   0.905   0.905   0.905
   729.84    0.905   0.905   0.905   0.905   0.905   0.905   0.905   0.905   0.905   0.905   0.905   0.905   0.905   0.905   0.905   0.905   0.905   0.905   0.905   0.905   0.905   0.905   0.905   0.905   0.905
   695.08    0.905   0.905   0.905   0.905   0.905   0.905   0.905   0.905   0.905   0.905   0.905   0.905   0.905   0.905   0.905   0.905   0.905   0.905   0.905   0.905   0.905   0.905   0.905   0.905   0.905
   660.33    0.905   0.905   0.905   0.905   0.905   0.905   0.905   0.905   0.905   0.905   0.905   0.905   0.905   0.905   0.905   0.905   0.905   0.905   0.905   0.905   0.905   0.905   0.905   0.905   0.905
   625.57    0.905   0.905   0.905   0.905   0.905   0.905   0.905   0.905   0.905   0.905   0.905   0.905   0.905   0.905   0.905   0.905   0.905   0.905   0.905   0.905   0.905   0.905   0.905   0.905   0.905
   590.82    0.905   0.905   0.905   0.905   0.905   0.905   0.905   0.905   0.905   0.905   0.905   0.905   0.905   0.905   0.905   0.905   0.905   0.905   0.905   0.905   0.905   0.905   0.905   0.905   0.905
   556.07    0.905   0.905   0.905   0.905   0.905   0.905   0.905   0.905   0.905   0.905   0.905   0.905   0.905   0.905   0.905   0.905   0.905   0.905   0.905   0.905   0.905   0.905   0.905   0.905   0.905
   521.31    0.905   0.905   0.905   0.905   0.905   0.905   0.905   0.905   0.905   0.905   0.905   0.905   0.905   0.905   0.905   0.905   0.905   0.905   0.905   0.905   0.905   0.905   0.905   0.905   0.905
   486.56    0.905   0.905   0.905   0.905   0.905   0.905   0.905   0.905   0.905   0.905   0.905   0.905   0.905   0.905   0.905   0.905   0.905   0.905   0.905   0.905   0.905   0.905   0.905   0.905   0.905
   451.80    0.905   0.905   0.905   0.905   0.905   0.905   0.905   0.905   0.905   0.905   0.905   0.905   0.905   0.905   0.905   0.905   0.905   0.905   0.905   0.905   0.905   0.905   0.905   0.905   0.905
   417.05    0.905   0.905   0.905   0.905   0.905   0.905   0.905   0.905   0.905   0.905   0.905   0.905   0.905   0.905   0.905   0.905   0.905   0.905   0.905   0.905   0.905   0.905   0.905   0.905   0.905
   382.30    0.905   0.905   0.905   0.905   0.905   0.905   0.905   0.905   0.905   0.905   0.905   0.905   0.905   0.905   0.905   0.905   0.905   0.905   0.905   0.905   0.905   0.905   0.905   0.905   0.905
   347.54    0.905   0.905   0.905   0.905   0.905   0.905   0.905   0.905   0.905   0.905   0.905   0.905   0.905   0.905   0.905   0.905   0.905   0.905   0.905   0.905   0.905   0.905   0.905   0.905   0.905
   312.79    0.905   0.905   0.905   0.905   0.905   0.905   0.905   0.905   0.905   0.905   0.905   0.905   0.905   0.905   0.905   0.905   0.905   0.905   0.905   0.905   0.905   0.905   0.905   0.905   0.905
   278.03    0.905   0.905   0.905   0.905   0.905   0.905   0.905   0.905   0.905   0.905   0.905   0.905   0.905   0.905   0.905   0.905   0.905   0.905   0.905   0.905   0.905   0.905   0.905   0.905   0.905
   243.28    0.905   0.905   0.905   0.905   0.905   0.905   0.905   0.905   0.905   0.905   0.905   0.905   0.905   0.905   0.905   0.905   0.905   0.905   0.905   0.905   0.905   0.905   0.905   0.905   0.905
   208.53    0.905   0.905   0.905   0.905   0.905   0.905   0.905   0.905   0.905   0.905   0.905   0.905   0.905   0.905   0.905   0.905   0.905   0.905   0.905   0.905   0.905   0.905   0.905   0.905   0.905
   173.77    0.905   0.905   0.905   0.905   0.905   0.905   0.905   0.905   0.905   0.905   0.905   0.905   0.905   0.905   0.905   0.905   0.905   0.905   0.905   0.905   0.905   0.905   0.905   0.905   0.905
   139.02    0.905   0.905   0.905   0.905   0.905   0.905   0.905   0.905   0.905   0.905   0.905   0.905   0.905   0.905   0.905   0.905   0.905   0.905   0.905   0.905   0.905   0.905   0.905   0.905   0.905
   104.26    0.905   0.905   0.905   0.905   0.905   0.905   0.905   0.905   0.905   0.905   0.905   0.905   0.905   0.905   0.905   0.905   0.905   0.905   0.905   0.905   0.905   0.905   0.905   0.905   0.905
    69.51    0.905   0.905   0.905   0.905   0.905   0.905   0.905   0.905   0.905   0.905   0.905   0.905   0.905   0.905   0.905   0.905   0.905   0.905   0.905   0.905   0.905   0.905   0.905   0.905   0.905
    34.76    0.905   0.905   0.905   0.905   0.905   0.905   0.905   0.905   0.905   0.905   0.905   0.905   0.905   0.905   0.905   0.905   0.905   0.905   0.905   0.905   0.905   0.905   0.905   0.905   0.905
     0.00    0.905   0.905   0.905   0.905   0.905   0.905   0.905   0.905   0.905   0.905   0.905   0.905   0.905   0.905   0.905   0.905   0.905   0.905   0.905   0.905   0.905   0.905   0.905   0.905   0.905

   Mean standard deviation across all grid points:
      u component:    1.076 m/s
      v component:    1.152 m/s
      w component:    0.905 m/s


U-component (X) statistics from the interpolated hub point:

   Mean =   9.9658 m/s
   TI   =  10.3344 %


Processing complete.  1.4989 CPU seconds used.
